LTspice 24.1.8 for Windows
Circuit: C:\Users\shaxz\OneDrive\Desktop\Projects\STM32 - Complete_Eval_Board_4_Emb_Dev\STM32 - Eval Board\PiFilterSim.net
Start Time: Mon Jun 16 20:10:54 2025
solver = Normal
Maximum thread count: 16
tnom = 27
temp = 27
method = trap
Direct Newton iteration for .op point succeeded.
Total elapsed time: 0.032 seconds.

Files loaded:
C:\Users\shaxz\OneDrive\Desktop\Projects\STM32 - Complete_Eval_Board_4_Emb_Dev\STM32 - Eval Board\PiFilterSim.net

